Circuit: * AD8606 SPICE Macro-model

Fatal Error: revision: Missing node(s).
